*HEADING
cubit(/fem-3d-solver/coaxial_cable_short_43000tets_20220629.inp): 06/29/2022: 02
version: 2021.11
**
********************************** P A R T S **********************************
*PART, NAME=Part-Default
**
********************************** N O D E S **********************************
*NODE, NSET=ALLNODES
       1,    4.445000e-01,    0.000000e+00,   -5.000000e-01
       2,   -4.445000e-01,    5.443555e-17,   -5.000000e-01
       3,    4.445000e-01,    0.000000e+00,    5.000000e-01
       4,   -4.445000e-01,   -5.443555e-17,    5.000000e-01
       5,    1.475000e+00,    0.000000e+00,   -5.000000e-01
       6,   -1.475000e+00,   -1.806354e-16,   -5.000000e-01
       7,    1.475000e+00,    0.000000e+00,    5.000000e-01
       8,   -1.475000e+00,    1.806354e-16,    5.000000e-01
       9,    4.293540e-01,    1.150451e-01,   -5.000000e-01
      10,    3.849483e-01,    2.222500e-01,   -5.000000e-01
      11,    3.143090e-01,    3.143090e-01,   -5.000000e-01
      12,    2.222500e-01,    3.849483e-01,   -5.000000e-01
      13,    1.150451e-01,    4.293540e-01,   -5.000000e-01
      14,    1.444022e-08,    4.445000e-01,   -5.000000e-01
      15,   -1.150450e-01,    4.293540e-01,   -5.000000e-01
      16,   -2.222500e-01,    3.849483e-01,   -5.000000e-01
      17,   -3.143090e-01,    3.143090e-01,   -5.000000e-01
      18,   -3.849483e-01,    2.222500e-01,   -5.000000e-01
      19,   -4.293540e-01,    1.150451e-01,   -5.000000e-01
      20,    4.293557e-01,   -1.150390e-01,    5.000000e-01
** ... 8335 like lines cut
**
********************************** E L E M E N T S ****************************
*ELEMENT, TYPE=C3D4, ELSET=Tetrahedrons
       1,    2217,    2218,    2219,    2220
       2,    2217,    2218,    2221,    2222
       3,    2223,    2224,    2225,    2226
       4,    2227,    2228,    2229,    2230
       5,    2218,    2231,    2221,    2232
       6,    2233,    2234,    2235,    2236
       7,    2222,    2238,    2237,    2239
       8,    2222,    2241,    2240,    2242
       9,    2243,    2244,    2245,    2246
      10,    2221,    2222,    2232,    2241
      11,    2247,    2248,    2249,    2250
      12,    2249,    2251,    2250,    2252
      13,    2253,    2254,    2255,    2256
      14,    2257,    2258,    2259,    2260
      15,    1663,    1690,    1823,    2261
      16,    2247,    2262,    2251,    2263
      17,    2264,    2265,    2266,    2267
      18,    2250,    2251,    2268,    2269
      19,    2247,    2250,    2270,    2271
      20,    2247,    2250,    2268,    2270
** ... 43349 like lines cut
*ELEMENT, TYPE=STRI3, ELSET=PECWalls
   43370,    1509,       7,     216
   43371,      81,    1510,      82
   43372,      82,    1510,    1511
   43373,      83,    1511,    1512
   43374,      84,    1512,    1513
   43375,      85,    1513,    1514
   43376,      86,    1514,    1515
   43377,      87,    1515,    1516
   43378,      88,    1516,    1517
   43379,      89,    1517,    1518
   43380,      90,    1518,    1519
   43381,      91,    1519,    1520
   43382,      92,    1520,    1521
   43383,      93,    1521,    1522
   43384,      94,    1522,    1523
   43385,      95,    1523,    1524
   43386,      98,    1525,      99
   43387,      99,     217,       6
   43388,      61,       5,    1526
   43389,       7,    1509,    1527
** ... 2044 like lines cut
*ELEMENT, TYPE=STRI3, ELSET=InputPort
   45434,     216,       7,     969
   45435,      23,     971,      22
   45436,     972,      52,       3
   45437,     973,     969,       7
   45438,     974,     973,     139
   45439,     143,     975,     142
   45440,     976,    1022,     144
   45441,     148,     977,     147
   45442,      45,     978,      44
   45443,     979,    1016,     149
   45444,     153,     980,     152
   45445,     981,    1010,     154
   45446,     158,     982,     157
   45447,     983,     982,     158
   45448,     984,     983,     159
   45449,     985,     984,     160
   45450,     987,     986,     162
   45451,     988,     987,     163
   45452,     989,     988,     164
   45453,     990,      30,       4
** ... 1164 like lines cut
*ELEMENT, TYPE=STRI3, ELSET=OutputPort
   46618,     138,       5,     429
   46619,      12,     431,      11
   46620,     432,      41,       1
   46621,     433,     429,       5
   46622,     434,     433,      61
   46623,      65,     435,      64
   46624,     436,     482,      66
   46625,      70,     437,      69
   46626,      34,     438,      33
   46627,     439,     476,      71
   46628,      75,     440,      74
   46629,     441,     470,      76
   46630,      80,     442,      79
   46631,     443,     442,      80
   46632,     444,     443,      81
   46633,     445,     444,      82
   46634,     447,     446,      84
   46635,     448,     447,      85
   46636,     449,     448,      86
   46637,     450,      19,       2
** ... 1164 like lines cut
*ELEMENT, TYPE=B21, ELSET=InPortBoundary
   47802,       7,     139
   47803,     139,     140
   47804,     140,     141
   47805,     141,     142
   47806,     142,     143
   47807,     143,     144
   47808,     144,     145
   47809,     145,     146
   47810,     146,     147
   47811,     147,     148
   47812,     148,     149
   47813,     149,     150
   47814,     150,     151
   47815,     151,     152
   47816,     152,     153
   47817,     153,     154
   47818,     154,     155
   47819,     155,     156
   47820,     156,     157
   47821,     157,     158
** ... 84 like lines cut
*ELEMENT, TYPE=B21, ELSET=OutPortBoundary
   47906,       5,      61
   47907,      61,      62
   47908,      62,      63
   47909,      63,      64
   47910,      64,      65
   47911,      65,      66
   47912,      66,      67
   47913,      67,      68
   47914,      68,      69
   47915,      69,      70
   47916,      70,      71
   47917,      71,      72
   47918,      72,      73
   47919,      73,      74
   47920,      74,      75
   47921,      75,      76
   47922,      76,      77
   47923,      77,      78
   47924,      78,      79
   47925,      79,      80
** ... 84 like lines cut
**
********************************** P R O P E R T I E S ************************
*SOLID SECTION, ELSET=Tetrahedrons, MATERIAL=Default-Steel
*SHELL SECTION, ELSET=PECWalls, SECTION INTEGRATION=SIMPSON, MATERIAL=Default-Steel
1.000000e+00
*SHELL SECTION, ELSET=InputPort, SECTION INTEGRATION=SIMPSON, MATERIAL=Default-Steel
1.000000e+00
*SHELL SECTION, ELSET=OutputPort, SECTION INTEGRATION=SIMPSON, MATERIAL=Default-Steel
1.000000e+00
**
*END PART
**
**
**
********************************** E N D   P A R T S **********************************
**
**
********************************** A S S E M B L Y ************************************
**
*ASSEMBLY, NAME=ASSEMBLY1
**
*INSTANCE, NAME=Part-Default_1, PART=Part-Default
*END INSTANCE
**
*END ASSEMBLY
**
**
**
*MATERIAL, NAME = Default-Steel
*ELASTIC, TYPE=ISOTROPIC
2.068000e+05, 2.900000e-01
*DENSITY
7.000000e-06
*CONDUCTIVITY,TYPE=ISO
4.500000e-02
*SPECIFIC HEAT
5.000000e+02
**
**
************************************** H I S T O R Y *************************************
**
*PREPRINT
**
**************************************** S T E P 1 ***************************************
*STEP,INC=100,NAME=Default Set
**
*STATIC
1, 1, 1e-05, 1
**
**
**
**
*END STEP
