*HEADING
cubit(_repos/fem-3d-solver/coaxial_cable_13000tets_20220626.inp): 06/26/2022: 06
version: 2021.11
**
********************************** P A R T S **********************************
*PART, NAME=Part-Default
**
********************************** N O D E S **********************************
*NODE, NSET=ALLNODES
       1,    2.500000e-01,    0.000000e+00,   -1.000000e+00
       2,   -2.499803e-01,    3.141473e-03,   -1.000000e+00
       3,    1.000000e+00,    0.000000e+00,   -1.000000e+00
       4,   -9.999210e-01,    1.256604e-02,   -1.000000e+00
       5,    2.500000e-01,    0.000000e+00,    1.000000e+00
       6,   -2.499803e-01,    3.141473e-03,    1.000000e+00
       7,    1.000000e+00,    0.000000e+00,    1.000000e+00
       8,   -9.999210e-01,    1.256604e-02,    1.000000e+00
       9,    2.167710e-01,    1.245405e-01,   -1.000000e+00
      10,    1.259175e-01,    2.159741e-01,   -1.000000e+00
      11,    1.591180e-03,    2.499949e-01,   -1.000000e+00
      12,   -1.231583e-01,    2.175593e-01,   -1.000000e+00
      13,   -2.151684e-01,    1.272893e-01,   -1.000000e+00
      14,    9.846872e-01,   -1.743303e-01,   -1.000000e+00
      15,    9.392180e-01,   -3.433212e-01,   -1.000000e+00
      16,    8.649847e-01,   -5.017982e-01,   -1.000000e+00
      17,    7.642608e-01,   -6.449073e-01,   -1.000000e+00
      18,    6.401309e-01,   -7.682658e-01,   -1.000000e+00
      19,    4.963971e-01,   -8.680955e-01,   -1.000000e+00
      20,    3.374606e-01,   -9.413397e-01,   -1.000000e+00
** ... 2595 like lines cut
**
********************************** E L E M E N T S ****************************
*ELEMENT, TYPE=C3D4, ELSET=Tetrahedrons
       1,     909,     910,     911,     912
       2,     912,     914,     913,     915
       3,     912,     914,     915,     916
       4,     910,     912,     917,     918
       5,     912,     916,     917,     918
       6,     919,     920,     921,     922
       7,     920,     922,     923,     924
       8,     920,     924,     923,     925
       9,     534,     926,     927,     928
      10,     920,     921,     922,     929
      11,     919,     922,     921,     930
      12,     931,     932,     933,     934
      13,     935,     936,     937,     938
      14,     934,     940,     939,     941
      15,     939,     941,     940,     942
      16,     931,     934,     943,     944
      17,     931,     932,     934,     945
      18,     934,     940,     941,     946
      19,     934,     945,     940,     946
      20,     947,     948,     949,     950
** ... 12905 like lines cut
*ELEMENT, TYPE=STRI3, ELSET=PECWalls
   12926,      42,     297,      43
   12927,     298,       7,      96
   12928,      23,     299,      24
   12929,      24,     299,     300
   12930,      29,     301,      30
   12931,      30,     111,       4
   12932,      14,       3,     302
   12933,       7,     298,     303
   12934,     302,       3,     304
   12935,      68,     305,      69
   12936,     441,     464,     317
   12937,     306,     119,     120
   12938,      74,     307,     121
   12939,      67,      66,     308
   12940,       4,     111,      36
   12941,      66,      65,     309
   12942,      36,     111,     310
   12943,     310,     112,     311
   12944,      65,      64,     312
   12945,     311,     113,     313
** ... 1316 like lines cut
*ELEMENT, TYPE=STRI3, ELSET=InputPort
   14262,      96,       7,     813
   14263,      93,      94,     814
   14264,      58,      59,     815
   14265,     816,     813,       7
   14266,      62,     818,      61
   14267,      69,      70,     819
   14268,      65,     820,      64
   14269,     821,     831,      66
   14270,      69,     823,      68
   14271,     824,      57,       6
   14272,     825,     819,      70
   14273,     826,     825,      71
   14274,     827,     826,      72
   14275,     828,      56,      57
   14276,     887,     883,     888
   14277,     830,     829,      74
   14278,     831,      65,      66
   14279,     832,     824,       6
   14280,     833,      63,      64
   14281,     834,     832,      75
** ... 220 like lines cut
*ELEMENT, TYPE=STRI3, ELSET=OutputPort
   14502,      52,       3,     717
   14503,      49,      50,     718
   14504,      14,     719,     720
   14505,     720,     717,       3
   14506,      18,     722,      17
   14507,      25,      26,     723
   14508,      21,     724,      20
   14509,     725,     735,      22
   14510,     727,     726,      24
   14511,     728,      13,       2
   14512,     729,     723,      26
   14513,     730,     729,      27
   14514,     731,     730,      28
   14515,     732,      12,      13
   14516,     791,     787,     792
   14517,     734,     733,      30
   14518,     735,      21,      22
   14519,     736,     728,       2
   14520,     737,      19,      20
   14521,     738,     736,      31
** ... 220 like lines cut
*ELEMENT, TYPE=B21, ELSET=InPortBoundary
   14742,       7,      58
   14743,      58,      59
   14744,      59,      60
   14745,      60,      61
   14746,      61,      62
   14747,      62,      63
   14748,      63,      64
   14749,      64,      65
   14750,      65,      66
   14751,      66,      67
   14752,      67,      68
   14753,      68,      69
   14754,      69,      70
   14755,      70,      71
   14756,      71,      72
   14757,      72,      73
   14758,      73,      74
   14759,      74,       8
   14760,       8,      80
   14761,      80,      81
** ... 28 like lines cut
*ELEMENT, TYPE=B21, ELSET=OutPortBoundary
   14790,       3,      14
   14791,      14,      15
   14792,      15,      16
   14793,      16,      17
   14794,      17,      18
   14795,      18,      19
   14796,      19,      20
   14797,      20,      21
   14798,      21,      22
   14799,      22,      23
   14800,      23,      24
   14801,      24,      25
   14802,      25,      26
   14803,      26,      27
   14804,      27,      28
   14805,      28,      29
   14806,      29,      30
   14807,      30,       4
   14808,       4,      36
   14809,      36,      37
** ... 28 like lines cut
**
********************************** P R O P E R T I E S ************************
*SOLID SECTION, ELSET=Tetrahedrons, MATERIAL=Default-Steel
*SHELL SECTION, ELSET=PECWalls, SECTION INTEGRATION=SIMPSON, MATERIAL=Default-Steel
1.000000e+00
*SHELL SECTION, ELSET=InputPort, SECTION INTEGRATION=SIMPSON, MATERIAL=Default-Steel
1.000000e+00
*SHELL SECTION, ELSET=OutputPort, SECTION INTEGRATION=SIMPSON, MATERIAL=Default-Steel
1.000000e+00
**
*END PART
**
**
**
********************************** E N D   P A R T S **********************************
**
**
********************************** A S S E M B L Y ************************************
**
*ASSEMBLY, NAME=ASSEMBLY1
**
*INSTANCE, NAME=Part-Default_1, PART=Part-Default
*END INSTANCE
**
*END ASSEMBLY
**
**
**
*MATERIAL, NAME = Default-Steel
*ELASTIC, TYPE=ISOTROPIC
2.068000e+05, 2.900000e-01
*DENSITY
7.000000e-06
*CONDUCTIVITY,TYPE=ISO
4.500000e-02
*SPECIFIC HEAT
5.000000e+02
**
**
************************************** H I S T O R Y *************************************
**
*PREPRINT
**
**************************************** S T E P 1 ***************************************
*STEP,INC=100,NAME=Default Set
**
*STATIC
1, 1, 1e-05, 1
**
**
**
**
*END STEP
