*HEADING
cubit(ktop/git_repos/fem-3d-solver/prism_waveguide_20220627.inp): 06/27/2022: 01
version: 2021.11
**
********************************** P A R T S **********************************
*PART, NAME=Part-Default
**
********************************** N O D E S **********************************
*NODE, NSET=ALLNODES
       1,    5.000000e-01,   -8.660254e-01,    1.000000e+00
       2,    5.000000e-01,    8.660254e-01,    1.000000e+00
       3,   -1.000000e+00,    1.224647e-16,    1.000000e+00
       4,    5.000000e-01,    8.660254e-01,   -1.000000e+00
       5,    5.000000e-01,   -8.660254e-01,   -1.000000e+00
       6,   -1.000000e+00,    1.224647e-16,   -1.000000e+00
       7,    5.000000e-01,   -7.327907e-01,    1.000000e+00
       8,    5.000000e-01,   -5.995560e-01,    1.000000e+00
       9,    5.000000e-01,   -4.663214e-01,    1.000000e+00
      10,    5.000000e-01,   -3.330867e-01,    1.000000e+00
      11,    5.000000e-01,   -1.998520e-01,    1.000000e+00
      12,    5.000000e-01,   -6.661734e-02,    1.000000e+00
      13,    5.000000e-01,    6.661734e-02,    1.000000e+00
      14,    5.000000e-01,    1.998520e-01,    1.000000e+00
      15,    5.000000e-01,    3.330867e-01,    1.000000e+00
      16,    5.000000e-01,    4.663214e-01,    1.000000e+00
      17,    5.000000e-01,    5.995560e-01,    1.000000e+00
      18,    5.000000e-01,    7.327907e-01,    1.000000e+00
      19,    3.846154e-01,    7.994081e-01,    1.000000e+00
      20,    2.692308e-01,    7.327907e-01,    1.000000e+00
** ... 2250 like lines cut
**
********************************** E L E M E N T S ****************************
*ELEMENT, TYPE=C3D4, ELSET=Tetrahedrons
       1,     829,     830,     831,     832
       2,     832,     834,     833,     835
       3,     832,     834,     835,     836
       4,     829,     837,     838,     839
       5,     832,     837,     839,     840
       6,     841,     842,     843,     844
       7,     842,     844,     845,     846
       8,     842,     845,     844,     847
       9,     848,     849,     850,     851
      10,     851,     853,     852,     854
      11,     851,     856,     855,     857
      12,     850,     851,     852,     858
      13,     851,     854,     855,     856
      14,     859,     860,     861,     862
      15,     856,     859,     860,     863
      16,     861,     863,     864,     865
      17,     861,     866,     863,     867
      18,     860,     863,     865,     868
      19,     863,     865,     868,     869
      20,     863,     867,     870,     871
** ... 10966 like lines cut
*ELEMENT, TYPE=STRI3, ELSET=PECWalls
   10987,      93,     253,      94
   10988,       5,     106,      55
   10989,      55,     106,     254
   10990,      56,     254,     255
   10991,      57,     255,     256
   10992,      58,     256,     257
   10993,      59,     257,     258
   10994,      60,     258,     259
   10995,      61,     259,     260
   10996,      62,     260,     261
   10997,      63,     261,     262
   10998,      64,     262,     263
   10999,      92,       6,      66
   11000,      79,      80,     264
   11001,      81,      82,     265
   11002,      82,      83,     266
   11003,      83,      84,     267
   11004,      84,      85,     268
   11005,      85,      86,     269
   11006,      86,      87,     270
** ... 1294 like lines cut
*ELEMENT, TYPE=STRI3, ELSET=InputPort
   12301,      18,       2,      19
   12302,      10,     121,       9
   12303,      13,     122,      12
   12304,      15,     123,      14
   12305,     124,     123,      15
   12306,     125,     124,      16
   12307,      18,     126,      17
   12308,     127,      13,      14
   12309,     128,      11,      12
   12310,      20,     126,      19
   12311,     129,      10,      11
   12312,     130,     126,      20
   12313,     131,       8,       9
   12314,     133,       7,       8
   12315,     134,     132,      22
   12316,      42,       1,       7
   12317,     135,     164,     134
   12318,     136,     135,      24
   12319,      27,     137,      26
   12320,     138,     137,      27
** ... 149 like lines cut
*ELEMENT, TYPE=STRI3, ELSET=OutputPort
   12470,      64,      65,     187
   12471,      63,      64,     188
   12472,      62,      63,     189
   12473,      59,      60,     190
   12474,      58,      59,     191
   12475,      57,      58,     192
   12476,      56,      57,     193
   12477,      55,      56,     194
   12478,      54,       5,      55
   12479,      50,      51,     195
   12480,      47,      48,     196
   12481,      53,      54,     194
   12482,      44,      45,     197
   12483,      52,      53,     198
   12484,       4,      43,      78
   12485,      51,      52,     199
   12486,      49,      50,     200
   12487,      48,      49,     201
   12488,      46,      47,     203
   12489,      45,      46,     204
** ... 149 like lines cut
*ELEMENT, TYPE=B21, ELSET=InPortBoundary
   12639,       1,       7
   12640,       7,       8
   12641,       8,       9
   12642,       9,      10
   12643,      10,      11
   12644,      11,      12
   12645,      12,      13
   12646,      13,      14
   12647,      14,      15
   12648,      15,      16
   12649,      16,      17
   12650,      17,      18
   12651,      18,       2
   12652,       2,      19
   12653,      19,      20
   12654,      20,      21
   12655,      21,      22
   12656,      22,      23
   12657,      23,      24
   12658,      24,      25
** ... 19 like lines cut
*ELEMENT, TYPE=B21, ELSET=OutPortBoundary
   12678,       4,      43
   12679,      43,      44
   12680,      44,      45
   12681,      45,      46
   12682,      46,      47
   12683,      47,      48
   12684,      48,      49
   12685,      49,      50
   12686,      50,      51
   12687,      51,      52
   12688,      52,      53
   12689,      53,      54
   12690,      54,       5
   12691,       5,      55
   12692,      55,      56
   12693,      56,      57
   12694,      57,      58
   12695,      58,      59
   12696,      59,      60
   12697,      60,      61
** ... 19 like lines cut
**
********************************** P R O P E R T I E S ************************
*SOLID SECTION, ELSET=Tetrahedrons, MATERIAL=Default-Steel
*SHELL SECTION, ELSET=PECWalls, SECTION INTEGRATION=SIMPSON, MATERIAL=Default-Steel
1.000000e+00
*SHELL SECTION, ELSET=InputPort, SECTION INTEGRATION=SIMPSON, MATERIAL=Default-Steel
1.000000e+00
*SHELL SECTION, ELSET=OutputPort, SECTION INTEGRATION=SIMPSON, MATERIAL=Default-Steel
1.000000e+00
**
*END PART
**
**
**
********************************** E N D   P A R T S **********************************
**
**
********************************** A S S E M B L Y ************************************
**
*ASSEMBLY, NAME=ASSEMBLY1
**
*INSTANCE, NAME=Part-Default_1, PART=Part-Default
*END INSTANCE
**
*END ASSEMBLY
**
**
**
*MATERIAL, NAME = Default-Steel
*ELASTIC, TYPE=ISOTROPIC
2.068000e+05, 2.900000e-01
*DENSITY
7.000000e-06
*CONDUCTIVITY,TYPE=ISO
4.500000e-02
*SPECIFIC HEAT
5.000000e+02
**
**
************************************** H I S T O R Y *************************************
**
*PREPRINT
**
**************************************** S T E P 1 ***************************************
*STEP,INC=100,NAME=Default Set
**
*STATIC
1, 1, 1e-05, 1
**
**
**
**
*END STEP
