*HEADING
cubit(s/fem-3d-solver/rectangular_waveguide_20220608_coarse.inp): 06/09/2022: 00
version: 2021.11
**
********************************** P A R T S **********************************
*PART, NAME=Part-Default
**
********************************** N O D E S **********************************
*NODE, NSET=ALLNODES
       1,    1.000000e+00,   -5.000000e-01,    2.000000e+00
       2,    1.000000e+00,    5.000000e-01,    2.000000e+00
       3,   -1.000000e+00,    5.000000e-01,    2.000000e+00
       4,   -1.000000e+00,   -5.000000e-01,    2.000000e+00
       5,    1.000000e+00,    5.000000e-01,   -2.000000e+00
       6,    1.000000e+00,   -5.000000e-01,   -2.000000e+00
       7,   -1.000000e+00,   -5.000000e-01,   -2.000000e+00
       8,   -1.000000e+00,    5.000000e-01,   -2.000000e+00
       9,    1.000000e+00,   -1.666667e-01,    2.000000e+00
      10,    1.000000e+00,    1.666667e-01,    2.000000e+00
      11,    7.142857e-01,    5.000000e-01,    2.000000e+00
      12,    4.285714e-01,    5.000000e-01,    2.000000e+00
      13,    1.428571e-01,    5.000000e-01,    2.000000e+00
      14,   -1.428571e-01,    5.000000e-01,    2.000000e+00
      15,   -4.285714e-01,    5.000000e-01,    2.000000e+00
      16,   -7.142857e-01,    5.000000e-01,    2.000000e+00
      17,   -1.000000e+00,    1.666667e-01,    2.000000e+00
      18,   -1.000000e+00,   -1.666667e-01,    2.000000e+00
      19,   -7.142857e-01,   -5.000000e-01,    2.000000e+00
      20,   -4.285714e-01,   -5.000000e-01,    2.000000e+00
** ... 715 like lines cut
**
********************************** E L E M E N T S ****************************
*ELEMENT, TYPE=C3D4, ELSET=Tetrahedrons
       1,     377,     378,     379,     380
       2,     380,     382,     381,     383
       3,     384,     385,     386,     387
       4,     388,     389,     390,     391
       5,     389,     391,     392,     393
       6,     391,     395,     394,     396
       7,     387,     390,     391,     397
       8,     389,     392,     391,     396
       9,     398,     399,     400,     401
      10,     401,     403,     402,     404
      11,     401,     404,     402,     405
      12,     406,     407,     408,     409
      13,     408,     409,     410,     411
      14,     409,     411,     412,     413
      15,     408,     410,     409,     414
      16,     407,     408,     409,     414
      17,     407,     415,     409,     416
      18,     407,     409,     415,     417
      19,     127,     139,     418,     419
      20,     419,     421,     420,     422
** ... 3166 like lines cut
*ELEMENT, TYPE=STRI3, ELSET=PECWalls
    3187,       1,      24,      67
    3188,      67,     199,      68
    3189,      69,     200,      70
    3190,      70,     200,     201
    3191,      72,     202,      73
    3192,       6,      79,      27
    3193,     203,      27,     227
    3194,      29,     210,     204
    3195,      30,     204,     205
    3196,      31,     205,     206
    3197,      66,       7,      32
    3198,      56,      57,     207
    3199,      61,      62,     208
    3200,      62,      63,     209
    3201,      28,     203,     210
    3202,      63,      64,     211
    3203,      64,      65,     212
    3204,      65,      66,     213
    3205,       4,      54,      19
    3206,      59,      60,     214
** ... 628 like lines cut
*ELEMENT, TYPE=STRI3, ELSET=InputPort
    3835,      10,      93,       9
    3836,       2,      11,      10
    3837,      24,       1,       9
    3838,      94,      10,      11
    3839,      16,      95,      15
    3840,       3,      17,      16
    3841,      96,      14,      15
    3842,       4,      19,      18
    3843,      97,      13,      14
    3844,      19,      98,      18
    3845,      99,      17,      18
    3846,     100,      12,      13
    3847,     101,     108,      98
    3848,     107,     108,     101
    3849,     104,     103,      23
    3850,      94,      11,      12
    3851,     103,      22,      23
    3852,     104,      24,       9
    3853,      94,      93,      10
    3854,      95,      16,      17
** ... 30 like lines cut
*ELEMENT, TYPE=STRI3, ELSET=OutputPort
    3885,      27,      28,     109
    3886,      26,       6,      27
    3887,       5,      25,      40
    3888,      25,      26,     110
    3889,     111,      31,      32
    3890,      32,       7,      33
    3891,      32,      33,     111
    3892,      30,      31,     113
    3893,      35,      34,       8
    3894,      29,      30,     114
    3895,      34,      35,     115
    3896,      28,      29,     116
    3897,     113,     124,     123
    3898,      29,     114,     116
    3899,      25,     110,     120
    3900,      26,      27,     109
    3901,      39,      40,     120
    3902,      38,      39,     119
    3903,      26,     109,     110
    3904,     109,     116,     121
** ... 30 like lines cut
*ELEMENT, TYPE=B21, ELSET=InPortBoundary
    3935,       1,       9
    3936,       9,      10
    3937,      10,       2
    3938,       2,      11
    3939,      11,      12
    3940,      12,      13
    3941,      13,      14
    3942,      14,      15
    3943,      15,      16
    3944,      16,       3
    3945,       3,      17
    3946,      17,      18
    3947,      18,       4
    3948,       4,      19
    3949,      19,      20
    3950,      20,      21
    3951,      21,      22
    3952,      22,      23
    3953,      23,      24
    3954,      24,       1
**
********************************** P R O P E R T I E S ************************
*SOLID SECTION, ELSET=Tetrahedrons, MATERIAL=Default-Steel
*SHELL SECTION, ELSET=PECWalls, SECTION INTEGRATION=SIMPSON, MATERIAL=Default-Steel
1.000000e+00
*SHELL SECTION, ELSET=InputPort, SECTION INTEGRATION=SIMPSON, MATERIAL=Default-Steel
1.000000e+00
*SHELL SECTION, ELSET=OutputPort, SECTION INTEGRATION=SIMPSON, MATERIAL=Default-Steel
1.000000e+00
**
*END PART
**
**
**
********************************** E N D   P A R T S **********************************
**
**
********************************** A S S E M B L Y ************************************
**
*ASSEMBLY, NAME=ASSEMBLY1
**
*INSTANCE, NAME=Part-Default_1, PART=Part-Default
*END INSTANCE
**
*END ASSEMBLY
**
**
**
*MATERIAL, NAME = Default-Steel
*ELASTIC, TYPE=ISOTROPIC
2.068000e+05, 2.900000e-01
*DENSITY
7.000000e-06
*CONDUCTIVITY,TYPE=ISO
4.500000e-02
*SPECIFIC HEAT
5.000000e+02
**
**
************************************** H I S T O R Y *************************************
**
*PREPRINT
**
**************************************** S T E P 1 ***************************************
*STEP,INC=100,NAME=Default Set
**
*STATIC
1, 1, 1e-05, 1
**
**
**
**
*END STEP
