*HEADING
cubit(s/User/Desktop/fem_3d_solver/rectangular_waveguide_3d.inp): 04/30/2022: 16
version: 2022.4
**
********************************** P A R T S **********************************
*PART, NAME=Part-Default
**
********************************** N O D E S **********************************
*NODE, NSET=ALLNODES
       1,    1.000000e+00,   -5.000000e-01,    2.000000e+00
       2,    1.000000e+00,    5.000000e-01,    2.000000e+00
       3,   -1.000000e+00,    5.000000e-01,    2.000000e+00
       4,   -1.000000e+00,   -5.000000e-01,    2.000000e+00
       5,    1.000000e+00,    5.000000e-01,   -2.000000e+00
       6,    1.000000e+00,   -5.000000e-01,   -2.000000e+00
       7,   -1.000000e+00,   -5.000000e-01,   -2.000000e+00
       8,   -1.000000e+00,    5.000000e-01,   -2.000000e+00
       9,    1.000000e+00,    0.000000e+00,    2.000000e+00
      10,    6.000000e-01,    5.000000e-01,    2.000000e+00
      11,    2.000000e-01,    5.000000e-01,    2.000000e+00
      12,   -2.000000e-01,    5.000000e-01,    2.000000e+00
      13,   -6.000000e-01,    5.000000e-01,    2.000000e+00
      14,   -1.000000e+00,    0.000000e+00,    2.000000e+00
      15,   -6.000000e-01,   -5.000000e-01,    2.000000e+00
      16,   -2.000000e-01,   -5.000000e-01,    2.000000e+00
      17,    2.000000e-01,   -5.000000e-01,    2.000000e+00
      18,    6.000000e-01,   -5.000000e-01,    2.000000e+00
      19,    1.000000e+00,    0.000000e+00,   -2.000000e+00
      20,    6.000000e-01,   -5.000000e-01,   -2.000000e+00
** ... 225 like lines cut
**
********************************** E L E M E N T S ****************************
*ELEMENT, TYPE=C3D4, ELSET=Tetrahedrons
       1,     137,     147,     157,     158
       2,     159,     160,     161,     162
       3,      89,     102,     119,     163
       4,     111,     160,     162,     164
       5,     111,     162,     160,     165
       6,     159,     160,     162,     165
       7,     160,     161,     162,     166
       8,     127,     167,     168,     169
       9,      40,     170,     101,     171
      10,     127,     168,     152,     169
      11,     169,     173,     172,     174
      12,     113,     169,     163,     175
      13,     163,     168,     169,     176
      14,     113,     172,     169,     175
      15,     167,     168,     175,     177
      16,     163,     175,     168,     177
      17,     178,     179,     180,     181
      18,     179,     180,     181,     182
      19,     180,     181,     183,     184
      20,      97,     181,     170,     185
** ... 889 like lines cut
*ELEMENT, TYPE=STRI3, ELSET=PECWalls
     910,       1,      18,      45
     911,      47,      89,      48
     912,       6,      52,      20
     913,      20,      52,      90
     914,      21,      90,      91
     915,      44,       7,      23
     916,      38,      39,      92
     917,      41,      42,      93
     918,      42,      43,      94
     919,      43,      44,      95
     920,      22,      91,      96
     921,       4,      37,      15
     922,      39,      40,      97
     923,      37,      38,      98
     924,      45,      99,      46
     925,      46,     100,      47
     926,      40,      41,     101
     927,      48,      89,     102
     928,      49,     102,     103
     929,      51,     105,      52
** ... 252 like lines cut
*ELEMENT, TYPE=STRI3, ELSET=InputPort
    1182,       2,      10,       9
    1183,      18,       1,       9
    1184,      63,       9,      10
    1185,       3,      14,      13
    1186,      61,      12,      13
    1187,       4,      15,      14
    1188,      62,      11,      12
    1189,      61,      13,      14
    1190,      16,      61,      15
    1191,      63,      10,      11
    1192,      63,      62,      17
    1193,      61,      14,      15
    1194,      62,      16,      17
    1195,      62,      12,      61
    1196,      62,      61,      16
    1197,      63,      18,       9
    1198,      63,      11,      62
    1199,      63,      17,      18
*ELEMENT, TYPE=STRI3, ELSET=OutputPort
    1200,      19,       6,      20
    1201,       5,      19,      28
    1202,      19,      20,      66
    1203,      23,       7,      24
    1204,      23,      24,      64
    1205,      22,      23,      64
    1206,      21,      22,      65
    1207,      24,       8,      25
    1208,      64,      25,      26
    1209,      20,      21,      66
    1210,      64,      26,      65
    1211,      65,      27,      66
    1212,      24,      25,      64
    1213,      26,      27,      65
    1214,      22,      64,      65
    1215,      28,      19,      66
    1216,      21,      65,      66
    1217,      27,      28,      66
**
********************************** P R O P E R T I E S ************************
*SOLID SECTION, ELSET=Tetrahedrons, MATERIAL=Default-Steel
*SHELL SECTION, ELSET=PECWalls, SECTION INTEGRATION=SIMPSON, MATERIAL=Default-Steel
1.000000e+00
*SHELL SECTION, ELSET=InputPort, SECTION INTEGRATION=SIMPSON, MATERIAL=Default-Steel
1.000000e+00
*SHELL SECTION, ELSET=OutputPort, SECTION INTEGRATION=SIMPSON, MATERIAL=Default-Steel
1.000000e+00
**
*END PART
**
**
**
********************************** E N D   P A R T S **********************************
**
**
********************************** A S S E M B L Y ************************************
**
*ASSEMBLY, NAME=ASSEMBLY1
**
*INSTANCE, NAME=Part-Default_1, PART=Part-Default
*END INSTANCE
**
*END ASSEMBLY
**
**
**
*MATERIAL, NAME = Default-Steel
*ELASTIC, TYPE=ISOTROPIC
2.068000e+05, 2.900000e-01
*DENSITY
7.000000e-06
*CONDUCTIVITY,TYPE=ISO
4.500000e-02
*SPECIFIC HEAT
5.000000e+02
**
**
************************************** H I S T O R Y *************************************
**
*PREPRINT
**
**************************************** S T E P 1 ***************************************
*STEP,INC=100,NAME=Default Set
**
*STATIC
1, 1, 1e-05, 1
**
**
**
**
*END STEP
