*HEADING
cubit(em_3d_solver/rectangular_waveguide_20220622_40000tets.inp): 06/22/2022: 17
version: 2022.4
**
********************************** P A R T S **********************************
*PART, NAME=Part-Default
**
********************************** N O D E S **********************************
*NODE, NSET=ALLNODES
       1,    5.000000e-01,   -2.500000e-01,    8.750000e-01
       2,    5.000000e-01,    2.500000e-01,    8.750000e-01
       3,   -5.000000e-01,    2.500000e-01,    8.750000e-01
       4,   -5.000000e-01,   -2.500000e-01,    8.750000e-01
       5,    5.000000e-01,    2.500000e-01,   -8.750000e-01
       6,    5.000000e-01,   -2.500000e-01,   -8.750000e-01
       7,   -5.000000e-01,   -2.500000e-01,   -8.750000e-01
       8,   -5.000000e-01,    2.500000e-01,   -8.750000e-01
       9,    5.000000e-01,   -1.875000e-01,    8.750000e-01
      10,    5.000000e-01,   -1.250000e-01,    8.750000e-01
      11,    5.000000e-01,   -6.250000e-02,    8.750000e-01
      12,    5.000000e-01,    0.000000e+00,    8.750000e-01
      13,    5.000000e-01,    6.250000e-02,    8.750000e-01
      14,    5.000000e-01,    1.250000e-01,    8.750000e-01
      15,    5.000000e-01,    1.875000e-01,    8.750000e-01
      16,    4.411765e-01,    2.500000e-01,    8.750000e-01
      17,    3.823529e-01,    2.500000e-01,    8.750000e-01
      18,    3.235294e-01,    2.500000e-01,    8.750000e-01
      19,    2.647059e-01,    2.500000e-01,    8.750000e-01
      20,    2.058824e-01,    2.500000e-01,    8.750000e-01
** ... 7731 like lines cut
**
********************************** E L E M E N T S ****************************
*ELEMENT, TYPE=C3D4, ELSET=Tetrahedrons
       1,    1977,    1978,    1979,    1980
       2,    1980,    1982,    1981,    1983
       3,    1977,    1980,    1984,    1985
       4,    1979,    1980,    1983,    1984
       5,    1986,    1987,    1988,    1989
       6,    1990,    1991,    1992,    1993
       7,    1991,    1993,    1994,    1995
       8,    1986,    1991,    1993,    1996
       9,    1987,    1995,    1997,    1998
      10,    1999,    2000,    2001,    2002
      11,    1986,    1991,    1990,    1993
      12,    2003,    2004,    2005,    2006
      13,    1994,    1998,    2006,    2007
      14,    2004,    2006,    2008,    2009
      15,    1998,    2006,    2007,    2010
      16,    1998,    2006,    2010,    2011
      17,    2012,    2013,    2014,    2015
      18,    1998,    2006,    2011,    2016
      19,    2017,    2018,    2019,    2020
      20,    2018,    2021,    2020,    2022
** ... 40572 like lines cut
*ELEMENT, TYPE=STRI3, ELSET=PECWalls
   40593,      39,     129,     969
   40594,     157,     970,     158
   40595,     158,     970,     971
   40596,      42,     972,      43
   40597,      44,    1042,     973
   40598,     162,     974,     163
   40599,     975,     136,     137
   40600,     164,    1017,     976
   40601,    1018,     138,     977
   40602,     166,    1019,     978
   40603,    1020,     140,     979
   40604,       6,     184,      62
   40605,      62,     184,     980
   40606,      63,     980,     981
   40607,      64,     981,     982
   40608,      65,     982,     983
   40609,      66,     983,     984
   40610,      67,     984,     985
   40611,      68,     985,     986
   40612,      69,     986,     987
** ... 3292 like lines cut
*ELEMENT, TYPE=STRI3, ELSET=InputPort
   43905,      10,     213,       9
   43906,      12,     214,      11
   43907,     215,     214,      12
   43908,     216,     215,      13
   43909,     217,     216,      14
   43910,       2,      16,      15
   43911,     218,      10,      11
   43912,      54,       1,       9
   43913,     219,      15,      16
   43914,      29,     222,      28
   43915,     223,     222,      29
   43916,     224,     223,      30
   43917,       3,      32,      31
   43918,     225,      27,      28
   43919,     226,      26,      27
   43920,     227,     224,      32
   43921,     228,      25,      26
   43922,     229,     227,      33
   43923,     230,      24,      25
   43924,     231,     229,      34
** ... 298 like lines cut
*ELEMENT, TYPE=STRI3, ELSET=OutputPort
   44223,      67,      68,     348
   44224,      65,      66,     349
   44225,      64,      65,     350
   44226,      63,      64,     351
   44227,      62,      63,     352
   44228,      61,       6,      62
   44229,      56,      57,     353
   44230,       5,      55,     100
   44231,      60,      61,     354
   44232,      59,      60,     355
   44233,      58,      59,     356
   44234,      57,      58,     357
   44235,      55,      56,     358
   44236,     359,      71,      72
   44237,      89,      90,     360
   44238,      88,      89,     361
   44239,      78,      79,     362
   44240,      78,     362,     363
   44241,      77,       7,      78
   44242,      74,      75,     364
** ... 298 like lines cut
*ELEMENT, TYPE=B21, ELSET=InPortBoundary
   44541,       1,       9
   44542,       9,      10
   44543,      10,      11
   44544,      11,      12
   44545,      12,      13
   44546,      13,      14
   44547,      14,      15
   44548,      15,       2
   44549,       2,      16
   44550,      16,      17
   44551,      17,      18
   44552,      18,      19
   44553,      19,      20
   44554,      20,      21
   44555,      21,      22
   44556,      22,      23
   44557,      23,      24
   44558,      24,      25
   44559,      25,      26
   44560,      26,      27
** ... 30 like lines cut
**
********************************** P R O P E R T I E S ************************
*SOLID SECTION, ELSET=Tetrahedrons, MATERIAL=Default-Steel
*SHELL SECTION, ELSET=PECWalls, SECTION INTEGRATION=SIMPSON, MATERIAL=Default-Steel
1.000000e+00
*SHELL SECTION, ELSET=InputPort, SECTION INTEGRATION=SIMPSON, MATERIAL=Default-Steel
1.000000e+00
*SHELL SECTION, ELSET=OutputPort, SECTION INTEGRATION=SIMPSON, MATERIAL=Default-Steel
1.000000e+00
**
*END PART
**
**
**
********************************** E N D   P A R T S **********************************
**
**
********************************** A S S E M B L Y ************************************
**
*ASSEMBLY, NAME=ASSEMBLY1
**
*INSTANCE, NAME=Part-Default_1, PART=Part-Default
*END INSTANCE
**
*END ASSEMBLY
**
**
**
*MATERIAL, NAME = Default-Steel
*ELASTIC, TYPE=ISOTROPIC
2.068000e+05, 2.900000e-01
*DENSITY
7.000000e-06
*CONDUCTIVITY,TYPE=ISO
4.500000e-02
*SPECIFIC HEAT
5.000000e+02
**
**
************************************** H I S T O R Y *************************************
**
*PREPRINT
**
**************************************** S T E P 1 ***************************************
*STEP,INC=100,NAME=Default Set
**
*STATIC
1, 1, 1e-05, 1
**
**
**
**
*END STEP
