*HEADING
cubit(_repos/fem-3d-solver/coaxial_cable_12000tets_20220627.inp): 06/27/2022: 12
version: 2021.11
**
********************************** P A R T S **********************************
*PART, NAME=Part-Default
**
********************************** N O D E S **********************************
*NODE, NSET=ALLNODES
       1,    4.445000e-01,    0.000000e+00,   -1.500000e+00
       2,   -4.445000e-01,    5.443555e-17,   -1.500000e+00
       3,    1.475000e+00,    0.000000e+00,   -1.500000e+00
       4,   -1.474884e+00,    1.853491e-02,   -1.500000e+00
       5,    4.445000e-01,    0.000000e+00,    1.500000e+00
       6,   -4.445000e-01,   -5.443555e-17,    1.500000e+00
       7,    1.475000e+00,    0.000000e+00,    1.500000e+00
       8,   -1.474884e+00,    1.853491e-02,    1.500000e+00
       9,    3.849542e-01,    2.222398e-01,   -1.500000e+00
      10,    2.222711e-01,    3.849361e-01,   -1.500000e+00
      11,    3.614985e-05,    4.445000e-01,   -1.500000e+00
      12,   -2.222085e-01,    3.849723e-01,   -1.500000e+00
      13,   -3.849180e-01,    2.223024e-01,   -1.500000e+00
      14,    1.452414e+00,   -2.571372e-01,   -1.500000e+00
      15,    1.385347e+00,   -5.063988e-01,   -1.500000e+00
      16,    1.275852e+00,   -7.401523e-01,   -1.500000e+00
      17,    1.127285e+00,   -9.512383e-01,   -1.500000e+00
      18,    9.441931e-01,   -1.133192e+00,   -1.500000e+00
      19,    7.321858e-01,   -1.280441e+00,   -1.500000e+00
      20,    4.977543e-01,   -1.388476e+00,   -1.500000e+00
** ... 2415 like lines cut
**
********************************** E L E M E N T S ****************************
*ELEMENT, TYPE=C3D4, ELSET=Tetrahedrons
       1,     927,     928,     929,     930
       2,     928,     930,     931,     932
       3,     930,     931,     933,     934
       4,     930,     935,     933,     936
       5,     930,     935,     937,     938
       6,     928,     930,     937,     939
       7,     940,     941,     942,     943
       8,     943,     945,     944,     946
       9,     947,     948,     949,     950
      10,     950,     952,     951,     953
      11,     948,     949,     950,     954
      12,     950,     954,     952,     955
      13,     956,     957,     958,     959
      14,     957,     958,     959,     960
      15,     961,     962,     963,     964
      16,     543,     963,     964,     965
      17,     963,     964,     966,     967
      18,     175,     968,     969,     970
      19,     970,     972,     971,     973
      20,     183,     172,     970,     971
** ... 11775 like lines cut
*ELEMENT, TYPE=STRI3, ELSET=PECWalls
   11796,      42,     479,      43
   11797,     480,       7,      96
   11798,      23,     481,      24
   11799,      24,     481,     482
   11800,      29,     483,      30
   11801,      30,     109,       4
   11802,      14,       3,     484
   11803,       7,     480,     485
   11804,     484,       3,     486
   11805,      68,     487,      69
   11806,     488,     117,     118
   11807,      74,     489,     119
   11808,      67,      66,     490
   11809,       4,     109,      36
   11810,      66,      65,     491
   11811,      36,     109,     492
   11812,     492,     110,     493
   11813,      65,      64,     494
   11814,     493,     111,     495
   11815,     495,     112,     496
** ... 1316 like lines cut
*ELEMENT, TYPE=STRI3, ELSET=InputPort
   13132,      96,       7,     225
   13133,      58,      59,     227
   13134,     228,     225,       7
   13135,      62,     230,      61
   13136,      69,      70,     231
   13137,      65,     232,      64
   13138,      67,     233,      66
   13139,      69,     235,      68
   13140,     236,      57,       6
   13141,     237,     231,      70
   13142,     238,     237,      71
   13143,     239,     238,      72
   13144,     240,      56,      57
   13145,     299,     295,     300
   13146,     242,     241,      74
   13147,     243,      65,      66
   13148,     244,     236,       6
   13149,     245,      63,      64
   13150,      76,     246,      75
   13151,     247,      62,      63
** ... 238 like lines cut
*ELEMENT, TYPE=STRI3, ELSET=OutputPort
   13390,      52,       3,     120
   13391,      49,      50,     121
   13392,     122,      35,       1
   13393,     123,     120,       3
   13394,      16,     124,      15
   13395,      32,     125,      31
   13396,      19,     126,      18
   13397,      22,     127,      21
   13398,     128,     127,      22
   13399,     129,     128,      23
   13400,     130,     129,      24
   13401,     131,      13,       2
   13402,      27,     132,      26
   13403,     133,     132,      27
   13404,     134,     133,      28
   13405,     135,      12,      13
   13406,     137,     136,      30
   13407,     138,      20,      21
   13408,      31,     139,       2
   13409,     140,      19,      20
** ... 238 like lines cut
*ELEMENT, TYPE=B21, ELSET=InPortBoundary
   13648,       7,      58
   13649,      58,      59
   13650,      59,      60
   13651,      60,      61
   13652,      61,      62
   13653,      62,      63
   13654,      63,      64
   13655,      64,      65
   13656,      65,      66
   13657,      66,      67
   13658,      67,      68
   13659,      68,      69
   13660,      69,      70
   13661,      70,      71
   13662,      71,      72
   13663,      72,      73
   13664,      73,      74
   13665,      74,       8
   13666,       8,      80
   13667,      80,      81
** ... 28 like lines cut
*ELEMENT, TYPE=B21, ELSET=OutPortBoundary
   13696,       3,      14
   13697,      14,      15
   13698,      15,      16
   13699,      16,      17
   13700,      17,      18
   13701,      18,      19
   13702,      19,      20
   13703,      20,      21
   13704,      21,      22
   13705,      22,      23
   13706,      23,      24
   13707,      24,      25
   13708,      25,      26
   13709,      26,      27
   13710,      27,      28
   13711,      28,      29
   13712,      29,      30
   13713,      30,       4
   13714,       4,      36
   13715,      36,      37
** ... 28 like lines cut
**
********************************** P R O P E R T I E S ************************
*SOLID SECTION, ELSET=Tetrahedrons, MATERIAL=Default-Steel
*SHELL SECTION, ELSET=PECWalls, SECTION INTEGRATION=SIMPSON, MATERIAL=Default-Steel
1.000000e+00
*SHELL SECTION, ELSET=InputPort, SECTION INTEGRATION=SIMPSON, MATERIAL=Default-Steel
1.000000e+00
*SHELL SECTION, ELSET=OutputPort, SECTION INTEGRATION=SIMPSON, MATERIAL=Default-Steel
1.000000e+00
**
*END PART
**
**
**
********************************** E N D   P A R T S **********************************
**
**
********************************** A S S E M B L Y ************************************
**
*ASSEMBLY, NAME=ASSEMBLY1
**
*INSTANCE, NAME=Part-Default_1, PART=Part-Default
*END INSTANCE
**
*END ASSEMBLY
**
**
**
*MATERIAL, NAME = Default-Steel
*ELASTIC, TYPE=ISOTROPIC
2.068000e+05, 2.900000e-01
*DENSITY
7.000000e-06
*CONDUCTIVITY,TYPE=ISO
4.500000e-02
*SPECIFIC HEAT
5.000000e+02
**
**
************************************** H I S T O R Y *************************************
**
*PREPRINT
**
**************************************** S T E P 1 ***************************************
*STEP,INC=100,NAME=Default Set
**
*STATIC
1, 1, 1e-05, 1
**
**
**
**
*END STEP
