*HEADING
cubit(epos/fem-3d-solver/microstrip_line_44000tets_20220710.inp): 07/10/2022: 18
version: 2021.11
**
********************************** P A R T S **********************************
*PART, NAME=Part-Default
**
********************************** N O D E S **********************************
*NODE, NSET=ALLNODES
       1,   -4.000000e-03,    8.000000e-04,    2.000000e-02
       2,   -4.000000e-03,    0.000000e+00,    2.000000e-02
       3,    4.000000e-03,    0.000000e+00,    2.000000e-02
       4,    4.000000e-03,    8.000000e-04,    2.000000e-02
       5,    5.000000e-04,    8.000000e-04,    2.000000e-02
       6,   -5.000000e-04,    8.000000e-04,    2.000000e-02
       7,   -4.000000e-03,    4.000000e-03,    2.000000e-02
       8,   -5.000000e-04,    8.800000e-04,    2.000000e-02
       9,    5.000000e-04,    8.800000e-04,    2.000000e-02
      10,    4.000000e-03,    4.000000e-03,    2.000000e-02
      11,   -4.000000e-03,    4.000000e-04,    2.000000e-02
      12,    4.000000e-03,    4.000000e-04,    2.000000e-02
      13,   -4.000000e-03,    3.542857e-03,    2.000000e-02
      14,   -4.000000e-03,    3.085714e-03,    2.000000e-02
      15,   -4.000000e-03,    2.628571e-03,    2.000000e-02
      16,   -4.000000e-03,    2.171429e-03,    2.000000e-02
      17,   -4.000000e-03,    1.714286e-03,    2.000000e-02
      18,   -4.000000e-03,    1.257143e-03,    2.000000e-02
      19,    4.000000e-03,    1.257143e-03,    2.000000e-02
      20,    4.000000e-03,    1.714286e-03,    2.000000e-02
** ... 8345 like lines cut
**
********************************** E L E M E N T S ****************************
*ELEMENT, TYPE=C3D4, ELSET=Tetrahedrons
       1,    3957,    3958,    3959,    3960
       2,    3960,    3962,    3961,    3963
       3,    3960,    3964,    3963,    3965
       4,    3960,    3965,    3966,    3967
       5,    3960,    3968,    3964,    3969
       6,    3957,    3962,    3960,    3964
       7,    2780,    3970,    3971,    3972
       8,    3973,    3974,    3975,    3976
       9,    3974,    3976,    3977,    3978
      10,    3979,    3980,    3981,    3982
      11,    3976,    3978,    3983,    3984
      12,    3976,    3984,    3985,    3986
      13,    3482,    3858,    2867,    3987
      14,    1062,    2760,    1465,    3988
      15,    1062,    1468,    2761,    3988
      16,    3989,    3990,    3991,    3992
      17,    3973,    3974,    3976,    3993
      18,    3994,    3995,    3996,    3997
      19,     973,    3998,    3999,    4000
      20,    3994,    4001,    3997,    4002
** ... 43734 like lines cut
*ELEMENT, TYPE=STRI3, ELSET=PECWalls
   43755,    2792,    2807,    2744
   43756,    2797,    2746,    2800
   43757,    2795,    2897,    2794
   43758,    2799,    2798,    2898
   43759,    2745,    2799,    2796
   43760,    2899,    2792,    2793
   43761,    2900,    2793,    2794
   43762,    2901,    2795,    2796
   43763,    2902,    2798,    2797
   43764,    2903,    2797,    2800
   43765,    2905,    2904,    2802
   43766,    2906,    2905,    2803
   43767,    2747,    2805,    2804
   43768,    2913,    2898,    2902
   43769,    2807,    2908,    2806
   43770,    2904,    2801,    2802
   43771,    2900,    2899,    2793
   43772,    2901,    2796,    2799
   43773,    2909,    2900,    2897
   43774,    2912,    2897,    2901
** ... 4128 like lines cut
*ELEMENT, TYPE=STRI3, ELSET=InputPortVacuum
   47903,     287,     313,     298
   47904,     320,     418,     319
   47905,     419,     324,     325
   47906,     310,     420,     311
   47907,     311,     420,     421
   47908,     297,     286,     312
   47909,     281,     292,     328
   47910,     298,     313,     422
   47911,     422,     314,     423
   47912,     423,     315,     424
   47913,     335,     425,     318
   47914,     335,     318,     284
   47915,     426,     344,     507
   47916,     427,     364,     365
   47917,     428,     367,     368
   47918,     292,     293,     429
   47919,     293,     294,     430
   47920,     294,     295,     431
   47921,     295,     296,     432
   47922,     296,     297,     433
** ... 323 like lines cut
*ELEMENT, TYPE=STRI3, ELSET=InputPortSubstrate
   48246,     282,     369,     319
   48247,     290,     281,     328
   48248,     280,     290,     345
   48249,     319,     369,     370
   48250,     320,     370,     371
   48251,     321,     371,     372
   48252,     322,     372,     373
   48253,     323,     373,     374
   48254,     324,     374,     375
   48255,     325,     376,     326
   48256,     326,     377,     327
   48257,     327,     378,     328
   48258,     383,     334,     379
   48259,     329,     380,     330
   48260,     331,     381,     332
   48261,     332,     381,     382
   48262,     369,     282,     383
   48263,     335,     291,     389
   48264,     339,     384,     340
   48265,     340,     384,     385
** ... 128 like lines cut
*ELEMENT, TYPE=STRI3, ELSET=OutputPortVacuum
   48394,      15,     138,      14
   48395,     139,     138,      15
   48396,     140,     139,      16
   48397,     141,     140,      17
   48398,       1,      74,      18
   48399,     142,      13,      14
   48400,      39,       7,      13
   48401,     143,     141,      74
   48402,     144,     143,      75
   48403,     145,     182,      77
   48404,     146,     145,      78
   48405,      81,     147,      80
   48406,     148,     147,      81
   48407,     149,     148,      82
   48408,       6,       8,      83
   48409,      85,     150,      84
   48410,     151,     167,      86
   48411,       5,      58,       9
   48412,      60,      61,     152
   48413,      58,     227,       9
** ... 323 like lines cut
*ELEMENT, TYPE=STRI3, ELSET=OutputPortSubstrate
   48737,       2,      40,      11
   48738,      74,       1,      11
   48739,      75,      74,      90
   48740,      76,      75,      91
   48741,      77,      76,      92
   48742,      80,      79,      93
   48743,      83,      82,      94
   48744,      48,      95,      47
   48745,      96,      95,      48
   48746,      97,      96,      49
   48747,     134,      97,     103
   48748,      62,      61,      99
   48749,     101,     100,      54
   48750,      65,      64,     101
   48751,     110,     102,      56
   48752,       3,      12,      57
   48753,     100,      53,      54
   48754,     103,      50,      51
   48755,     110,      57,      12
   48756,     104,      44,      45
** ... 126 like lines cut
*ELEMENT, TYPE=B21, ELSET=InPortPEC
   48883,     280,     345
   48884,     345,     346
   48885,     346,     347
   48886,     347,     348
   48887,     348,     349
   48888,     349,     350
   48889,     350,     351
   48890,     351,     352
   48891,     352,     353
   48892,     353,     354
   48893,     354,     355
   48894,     355,     356
   48895,     356,     357
   48896,     357,     358
   48897,     358,     359
   48898,     359,     360
   48899,     360,     361
   48900,     361,     362
   48901,     362,     285
   48902,     280,     290
** ... 49 like lines cut
*ELEMENT, TYPE=B21, ELSET=OutPortPEC
   48952,       2,      40
   48953,      40,      41
   48954,      41,      42
   48955,      42,      43
   48956,      43,      44
   48957,      44,      45
   48958,      45,      46
   48959,      46,      47
   48960,      47,      48
   48961,      48,      49
   48962,      49,      50
   48963,      50,      51
   48964,      51,      52
   48965,      52,      53
   48966,      53,      54
   48967,      54,      55
   48968,      55,      56
   48969,      56,      57
   48970,      57,       3
   48971,       3,      12
** ... 49 like lines cut
**
********************************** P R O P E R T I E S ************************
*SOLID SECTION, ELSET=Tetrahedrons, MATERIAL=Default-Steel
*SHELL SECTION, ELSET=PECWalls, SECTION INTEGRATION=SIMPSON, MATERIAL=Default-Steel
1.000000e+00
*SHELL SECTION, ELSET=InputPortVacuum, SECTION INTEGRATION=SIMPSON, MATERIAL=Default-Steel
1.000000e+00
*SHELL SECTION, ELSET=InputPortSubstrate, SECTION INTEGRATION=SIMPSON, MATERIAL=Default-Steel
1.000000e+00
*SHELL SECTION, ELSET=OutputPortVacuum, SECTION INTEGRATION=SIMPSON, MATERIAL=Default-Steel
1.000000e+00
*SHELL SECTION, ELSET=OutputPortSubstrate, SECTION INTEGRATION=SIMPSON, MATERIAL=Default-Steel
1.000000e+00
**
*END PART
**
**
**
********************************** E N D   P A R T S **********************************
**
**
********************************** A S S E M B L Y ************************************
**
*ASSEMBLY, NAME=ASSEMBLY1
**
*INSTANCE, NAME=Part-Default_1, PART=Part-Default
*END INSTANCE
**
*END ASSEMBLY
**
**
**
*MATERIAL, NAME = Default-Steel
*ELASTIC, TYPE=ISOTROPIC
2.068000e+05, 2.900000e-01
*DENSITY
7.000000e-06
*CONDUCTIVITY,TYPE=ISO
4.500000e-02
*SPECIFIC HEAT
5.000000e+02
**
**
************************************** H I S T O R Y *************************************
**
*PREPRINT
**
**************************************** S T E P 1 ***************************************
*STEP,INC=100,NAME=Default Set
**
*STATIC
1, 1, 1e-05, 1
**
**
**
**
*END STEP
