*HEADING
cubit(it_repos/fem-3d-solver/rectangular_waveguide_20220615.inp): 06/15/2022: 22
version: 2021.11
**
********************************** P A R T S **********************************
*PART, NAME=Part-Default
**
********************************** N O D E S **********************************
*NODE, NSET=ALLNODES
       1,    5.000000e-01,   -2.500000e-01,    8.750000e-01
       2,    5.000000e-01,    2.500000e-01,    8.750000e-01
       3,   -5.000000e-01,    2.500000e-01,    8.750000e-01
       4,   -5.000000e-01,   -2.500000e-01,    8.750000e-01
       5,    5.000000e-01,    2.500000e-01,   -8.750000e-01
       6,    5.000000e-01,   -2.500000e-01,   -8.750000e-01
       7,   -5.000000e-01,   -2.500000e-01,   -8.750000e-01
       8,   -5.000000e-01,    2.500000e-01,   -8.750000e-01
       9,    5.000000e-01,   -1.250000e-01,    8.750000e-01
      10,    5.000000e-01,    5.551115e-17,    8.750000e-01
      11,    5.000000e-01,    1.250000e-01,    8.750000e-01
      12,    3.571429e-01,    2.500000e-01,    8.750000e-01
      13,    2.142857e-01,    2.500000e-01,    8.750000e-01
      14,    7.142857e-02,    2.500000e-01,    8.750000e-01
      15,   -7.142857e-02,    2.500000e-01,    8.750000e-01
      16,   -2.142857e-01,    2.500000e-01,    8.750000e-01
      17,   -3.571429e-01,    2.500000e-01,    8.750000e-01
      18,   -5.000000e-01,    1.250000e-01,    8.750000e-01
      19,   -5.000000e-01,   -5.551115e-17,    8.750000e-01
      20,   -5.000000e-01,   -1.250000e-01,    8.750000e-01
** ... 696 like lines cut
**
********************************** E L E M E N T S ****************************
*ELEMENT, TYPE=C3D4, ELSET=Tetrahedrons
       1,     365,     366,     367,     368
       2,     365,     368,     369,     370
       3,     371,     372,     373,     374
       4,     371,     374,     373,     375
       5,     376,     377,     378,     379
       6,     378,     380,     379,     381
       7,     377,     381,     379,     382
       8,     379,     384,     383,     385
       9,     377,     382,     379,     385
      10,     386,     387,     388,     389
      11,     386,     387,     389,     390
      12,     388,     391,     389,     392
      13,     389,     394,     393,     395
      14,     389,     392,     391,     393
      15,     372,     397,     396,     398
      16,     371,     372,     374,     399
      17,     372,     400,     396,     401
      18,     372,     397,     398,     402
      19,     371,     373,     372,     403
      20,     372,     401,     399,     404
** ... 3073 like lines cut
*ELEMENT, TYPE=STRI3, ELSET=PECWalls
    3094,       1,      26,      69
    3095,      70,     201,      71
    3096,      71,     201,     202
    3097,      73,     220,     203
    3098,       6,      80,      30
    3099,      30,     204,      31
    3100,      31,     204,     205
    3101,      32,     205,     206
    3102,      33,     206,     207
    3103,      34,     207,     208
    3104,      68,       7,      35
    3105,      58,      59,     209
    3106,      62,      63,     210
    3107,      63,      64,     211
    3108,      64,      65,     212
    3109,      65,      66,     213
    3110,      66,      67,     214
    3111,      67,      68,     215
    3112,       4,      57,      21
    3113,      57,      58,     216
** ... 592 like lines cut
*ELEMENT, TYPE=STRI3, ELSET=InputPort
    3706,      93,      26,       9
    3707,      94,      93,      10
    3708,       2,      12,      11
    3709,      26,       1,       9
    3710,      95,      94,      12
    3711,      15,      96,      14
    3712,      17,      97,      16
    3713,       3,      18,      17
    3714,      98,      15,      16
    3715,      99,      17,      18
    3716,       4,      21,      20
    3717,     100,      19,      20
    3718,     102,      13,      14
    3719,      98,      16,      97
    3720,     104,     103,      23
    3721,      26,     106,      25
    3722,      94,      11,      12
    3723,     105,      24,      25
    3724,      93,       9,      10
    3725,      94,      10,      11
** ... 36 like lines cut
*ELEMENT, TYPE=STRI3, ELSET=OutputPort
    3762,      30,      31,     111
    3763,      30,     111,     112
    3764,      29,       6,      30
    3765,       5,      27,      44
    3766,      27,      28,     113
    3767,      40,      41,     114
    3768,     115,      34,      35
    3769,      35,       7,      36
    3770,      35,      36,     116
    3771,     115,     116,     127
    3772,      33,      34,     118
    3773,      39,      38,       8
    3774,      38,      39,     117
    3775,      31,      32,     120
    3776,      32,      33,     121
    3777,     120,     121,     126
    3778,      43,      44,     124
    3779,      28,      29,     112
    3780,      42,      43,     123
    3781,      44,      27,     113
** ... 36 like lines cut
*ELEMENT, TYPE=B21, ELSET=InPortBoundary
    3818,       1,       9
    3819,       9,      10
    3820,      10,      11
    3821,      11,       2
    3822,       2,      12
    3823,      12,      13
    3824,      13,      14
    3825,      14,      15
    3826,      15,      16
    3827,      16,      17
    3828,      17,       3
    3829,       3,      18
    3830,      18,      19
    3831,      19,      20
    3832,      20,       4
    3833,       4,      21
    3834,      21,      22
    3835,      22,      23
    3836,      23,      24
    3837,      24,      25
    3838,      25,      26
    3839,      26,       1
**
********************************** P R O P E R T I E S ************************
*SOLID SECTION, ELSET=Tetrahedrons, MATERIAL=Default-Steel
*SHELL SECTION, ELSET=PECWalls, SECTION INTEGRATION=SIMPSON, MATERIAL=Default-Steel
1.000000e+00
*SHELL SECTION, ELSET=InputPort, SECTION INTEGRATION=SIMPSON, MATERIAL=Default-Steel
1.000000e+00
*SHELL SECTION, ELSET=OutputPort, SECTION INTEGRATION=SIMPSON, MATERIAL=Default-Steel
1.000000e+00
**
*END PART
**
**
**
********************************** E N D   P A R T S **********************************
**
**
********************************** A S S E M B L Y ************************************
**
*ASSEMBLY, NAME=ASSEMBLY1
**
*INSTANCE, NAME=Part-Default_1, PART=Part-Default
*END INSTANCE
**
*END ASSEMBLY
**
**
**
*MATERIAL, NAME = Default-Steel
*ELASTIC, TYPE=ISOTROPIC
2.068000e+05, 2.900000e-01
*DENSITY
7.000000e-06
*CONDUCTIVITY,TYPE=ISO
4.500000e-02
*SPECIFIC HEAT
5.000000e+02
**
**
************************************** H I S T O R Y *************************************
**
*PREPRINT
**
**************************************** S T E P 1 ***************************************
*STEP,INC=100,NAME=Default Set
**
*STATIC
1, 1, 1e-05, 1
**
**
**
**
*END STEP
