*HEADING
cubit(ular_waveguide_12000tets_correct_orientation_20220630.inp): 06/30/2022: 04
version: 2021.11
**
********************************** P A R T S **********************************
*PART, NAME=Part-Default
**
********************************** N O D E S **********************************
*NODE, NSET=ALLNODES
       1,    5.000000e-01,   -2.500000e-01,    1.750000e+00
       2,    5.000000e-01,    2.500000e-01,    1.750000e+00
       3,   -5.000000e-01,    2.500000e-01,    1.750000e+00
       4,   -5.000000e-01,   -2.500000e-01,    1.750000e+00
       5,    5.000000e-01,    2.500000e-01,    0.000000e+00
       6,    5.000000e-01,   -2.500000e-01,    0.000000e+00
       7,   -5.000000e-01,   -2.500000e-01,    0.000000e+00
       8,   -5.000000e-01,    2.500000e-01,    0.000000e+00
       9,    5.000000e-01,   -1.500000e-01,    1.750000e+00
      10,    5.000000e-01,   -5.000000e-02,    1.750000e+00
      11,    5.000000e-01,    5.000000e-02,    1.750000e+00
      12,    5.000000e-01,    1.500000e-01,    1.750000e+00
      13,    4.090909e-01,    2.500000e-01,    1.750000e+00
      14,    3.181818e-01,    2.500000e-01,    1.750000e+00
      15,    2.272727e-01,    2.500000e-01,    1.750000e+00
      16,    1.363636e-01,    2.500000e-01,    1.750000e+00
      17,    4.545455e-02,    2.500000e-01,    1.750000e+00
      18,   -4.545455e-02,    2.500000e-01,    1.750000e+00
      19,   -1.363636e-01,    2.500000e-01,    1.750000e+00
      20,   -2.272727e-01,    2.500000e-01,    1.750000e+00
** ... 2305 like lines cut
**
********************************** E L E M E N T S ****************************
*ELEMENT, TYPE=C3D4, ELSET=Tetrahedrons
       1,     824,     825,     826,     827
       2,     827,     829,     828,     830
       3,     827,     829,     830,     831
       4,     825,     827,     830,     831
       5,     832,     833,     834,     835
       6,     827,     836,     831,     837
       7,     838,     839,     840,     841
       8,     838,     842,     841,     843
       9,     838,     841,     842,     844
      10,     840,     841,     845,     846
      11,     838,     843,     841,     846
      12,     841,     847,     843,     848
      13,     841,     846,     847,     849
      14,     850,     851,     852,     853
      15,     853,     855,     854,     856
      16,     853,     856,     854,     857
      17,     853,     858,     855,     859
      18,     853,     854,     858,     860
      19,     159,     861,     862,     863
      20,     852,     864,     853,     865
** ... 11343 like lines cut
*ELEMENT, TYPE=STRI3, ELSET=PECWalls
   11364,       1,      36,     101
   11365,     101,     424,     102
   11366,     103,     451,     425
   11367,     104,     425,     426
   11368,     105,     426,     427
   11369,     428,      89,      90
   11370,     107,     429,     108
   11371,       6,     118,      41
   11372,      41,     118,     430
   11373,      42,     430,     431
   11374,      43,     431,     432
   11375,      44,     432,     433
   11376,      45,     433,     434
   11377,      46,     434,     435
   11378,      47,     435,     436
   11379,      48,     436,     437
   11380,     100,       7,      50
   11381,      85,      86,     438
   11382,      91,      92,     439
   11383,      92,      93,     440
** ... 1356 like lines cut
*ELEMENT, TYPE=STRI3, ELSET=InputPort
   12740,      43,      44,     189
   12741,      42,      43,     190
   12742,      41,      42,     191
   12743,      41,     232,       6
   12744,      37,     231,       5
   12745,      39,      40,     192
   12746,      38,      39,     193
   12747,      37,      38,     194
   12748,      54,       8,     229
   12749,     196,      48,      49
   12750,      51,     230,       7
   12751,      49,      50,     197
   12752,     197,     230,     198
   12753,     196,     197,     224
   12754,     229,     195,     199
   12755,      46,      47,     200
   12756,       8,      55,     229
   12757,      45,      46,     201
   12758,      47,      48,     202
   12759,      52,      53,     203
** ... 112 like lines cut
*ELEMENT, TYPE=STRI3, ELSET=OutputPort
   12872,      11,     137,      10
   12873,     138,     137,      11
   12874,       2,     180,      12
   12875,     139,       9,      10
   12876,       1,     179,      36
   12877,       2,      13,     180
   12878,     141,     140,      14
   12879,      21,     142,      20
   12880,     143,     142,      21
   12881,       3,     178,      22
   12882,     144,      19,      20
   12883,     145,      18,      19
   12884,     146,     178,      23
   12885,     147,     146,      24
   12886,     148,     147,      25
   12887,       4,     177,      26
   12888,     149,      17,      18
   12889,       4,      27,     177
   12890,     151,      16,      17
   12891,     154,      15,      16
** ... 114 like lines cut
*ELEMENT, TYPE=B21, ELSET=InPortBoundary
   13006,       5,      37
   13007,      37,      38
   13008,      38,      39
   13009,      39,      40
   13010,      40,       6
   13011,       6,      41
   13012,      41,      42
   13013,      42,      43
   13014,      43,      44
   13015,      44,      45
   13016,      45,      46
   13017,      46,      47
   13018,      47,      48
   13019,      48,      49
   13020,      49,      50
   13021,      50,       7
   13022,       7,      51
   13023,      51,      52
   13024,      52,      53
   13025,      53,      54
** ... 12 like lines cut
*ELEMENT, TYPE=B21, ELSET=OutPortBoundary
   13038,       1,       9
   13039,       9,      10
   13040,      10,      11
   13041,      11,      12
   13042,      12,       2
   13043,       2,      13
   13044,      13,      14
   13045,      14,      15
   13046,      15,      16
   13047,      16,      17
   13048,      17,      18
   13049,      18,      19
   13050,      19,      20
   13051,      20,      21
   13052,      21,      22
   13053,      22,       3
   13054,       3,      23
   13055,      23,      24
   13056,      24,      25
   13057,      25,      26
** ... 12 like lines cut
**
********************************** P R O P E R T I E S ************************
*SOLID SECTION, ELSET=Tetrahedrons, MATERIAL=Default-Steel
*SHELL SECTION, ELSET=PECWalls, SECTION INTEGRATION=SIMPSON, MATERIAL=Default-Steel
1.000000e+00
*SHELL SECTION, ELSET=InputPort, SECTION INTEGRATION=SIMPSON, MATERIAL=Default-Steel
1.000000e+00
*SHELL SECTION, ELSET=OutputPort, SECTION INTEGRATION=SIMPSON, MATERIAL=Default-Steel
1.000000e+00
**
*END PART
**
**
**
********************************** E N D   P A R T S **********************************
**
**
********************************** A S S E M B L Y ************************************
**
*ASSEMBLY, NAME=ASSEMBLY1
**
*INSTANCE, NAME=Part-Default_1, PART=Part-Default
*END INSTANCE
**
*END ASSEMBLY
**
**
**
*MATERIAL, NAME = Default-Steel
*ELASTIC, TYPE=ISOTROPIC
2.068000e+05, 2.900000e-01
*DENSITY
7.000000e-06
*CONDUCTIVITY,TYPE=ISO
4.500000e-02
*SPECIFIC HEAT
5.000000e+02
**
**
************************************** H I S T O R Y *************************************
**
*PREPRINT
**
**************************************** S T E P 1 ***************************************
*STEP,INC=100,NAME=Default Set
**
*STATIC
1, 1, 1e-05, 1
**
**
**
**
*END STEP
