*HEADING
cubit(op/fem_3d_solver/rectangular_waveguide_3d_less_coarse.inp): 05/20/2022: 12
version: 2022.4
**
********************************** P A R T S **********************************
*PART, NAME=Part-Default
**
********************************** N O D E S **********************************
*NODE, NSET=ALLNODES
       1,    1.000000e+00,   -5.000000e-01,    2.000000e+00
       2,    1.000000e+00,    5.000000e-01,    2.000000e+00
       3,   -1.000000e+00,    5.000000e-01,    2.000000e+00
       4,   -1.000000e+00,   -5.000000e-01,    2.000000e+00
       5,    1.000000e+00,    5.000000e-01,   -2.000000e+00
       6,    1.000000e+00,   -5.000000e-01,   -2.000000e+00
       7,   -1.000000e+00,   -5.000000e-01,   -2.000000e+00
       8,   -1.000000e+00,    5.000000e-01,   -2.000000e+00
       9,    1.000000e+00,   -1.666667e-01,    2.000000e+00
      10,    1.000000e+00,    1.666667e-01,    2.000000e+00
      11,    7.142857e-01,    5.000000e-01,    2.000000e+00
      12,    4.285714e-01,    5.000000e-01,    2.000000e+00
      13,    1.428571e-01,    5.000000e-01,    2.000000e+00
      14,   -1.428571e-01,    5.000000e-01,    2.000000e+00
      15,   -4.285714e-01,    5.000000e-01,    2.000000e+00
      16,   -7.142857e-01,    5.000000e-01,    2.000000e+00
      17,   -1.000000e+00,    1.666667e-01,    2.000000e+00
      18,   -1.000000e+00,   -1.666667e-01,    2.000000e+00
      19,   -7.142857e-01,   -5.000000e-01,    2.000000e+00
      20,   -4.285714e-01,   -5.000000e-01,    2.000000e+00
** ... 715 like lines cut
**
********************************** E L E M E N T S ****************************
*ELEMENT, TYPE=C3D4, ELSET=Tetrahedrons
     749,     377,     378,     379,     380
     750,     380,     382,     381,     383
     751,     384,     385,     386,     387
     752,     388,     389,     390,     391
     753,     389,     391,     392,     393
     754,     391,     395,     394,     396
     755,     387,     390,     391,     397
     756,     389,     392,     391,     396
     757,     398,     399,     400,     401
     758,     401,     403,     402,     404
     759,     401,     404,     402,     405
     760,     406,     407,     408,     409
     761,     408,     409,     410,     411
     762,     409,     411,     412,     413
     763,     408,     410,     409,     414
     764,     407,     408,     409,     414
     765,     407,     415,     409,     416
     766,     407,     409,     415,     417
     767,     127,     139,     418,     419
     768,     419,     421,     420,     422
** ... 3166 like lines cut
*ELEMENT, TYPE=STRI3, ELSET=PECWalls
     425,       1,      24,      67
     426,      67,     199,      68
     427,      69,     200,      70
     428,      70,     200,     201
     429,      72,     202,      73
     430,       6,      79,      27
     431,     203,      27,     227
     432,      29,     210,     204
     433,      30,     204,     205
     434,      31,     205,     206
     435,      66,       7,      32
     436,      56,      57,     207
     437,      61,      62,     208
     438,      62,      63,     209
     439,      28,     203,     210
     440,      63,      64,     211
     441,      64,      65,     212
     442,      65,      66,     213
     443,       4,      54,      19
     444,      59,      60,     214
** ... 628 like lines cut
*ELEMENT, TYPE=STRI3, ELSET=InputPort
     219,      10,      93,       9
     220,       2,      11,      10
     221,      24,       1,       9
     222,      94,      10,      11
     223,      16,      95,      15
     224,       3,      17,      16
     225,      96,      14,      15
     226,       4,      19,      18
     227,      97,      13,      14
     228,      19,      98,      18
     229,      99,      17,      18
     230,     100,      12,      13
     231,     101,     108,      98
     232,     107,     108,     101
     233,     104,     103,      23
     234,      94,      11,      12
     235,     103,      22,      23
     236,     104,      24,       9
     237,      94,      93,      10
     238,      95,      16,      17
** ... 30 like lines cut
*ELEMENT, TYPE=STRI3, ELSET=OutputPort
     375,      27,      28,     109
     376,      26,       6,      27
     377,       5,      25,      40
     378,      25,      26,     110
     379,     111,      31,      32
     380,      32,       7,      33
     381,      32,      33,     111
     382,      30,      31,     113
     383,      35,      34,       8
     384,      29,      30,     114
     385,      34,      35,     115
     386,      28,      29,     116
     387,     113,     124,     123
     388,      29,     114,     116
     389,      25,     110,     120
     390,      26,      27,     109
     391,      39,      40,     120
     392,      38,      39,     119
     393,      26,     109,     110
     394,     109,     116,     121
** ... 30 like lines cut
**
********************************** P R O P E R T I E S ************************
*SOLID SECTION, ELSET=Tetrahedrons, MATERIAL=Default-Steel
*SHELL SECTION, ELSET=PECWalls, SECTION INTEGRATION=SIMPSON, MATERIAL=Default-Steel
1.000000e+00
*SHELL SECTION, ELSET=InputPort, SECTION INTEGRATION=SIMPSON, MATERIAL=Default-Steel
1.000000e+00
*SHELL SECTION, ELSET=OutputPort, SECTION INTEGRATION=SIMPSON, MATERIAL=Default-Steel
1.000000e+00
**
*END PART
**
**
**
********************************** E N D   P A R T S **********************************
**
**
********************************** A S S E M B L Y ************************************
**
*ASSEMBLY, NAME=ASSEMBLY1
**
*INSTANCE, NAME=Part-Default_1, PART=Part-Default
*END INSTANCE
**
*END ASSEMBLY
**
**
**
*MATERIAL, NAME = Default-Steel
*ELASTIC, TYPE=ISOTROPIC
2.068000e+05, 2.900000e-01
*DENSITY
7.000000e-06
*CONDUCTIVITY,TYPE=ISO
4.500000e-02
*SPECIFIC HEAT
5.000000e+02
**
**
************************************** H I S T O R Y *************************************
**
*PREPRINT
**
**************************************** S T E P 1 ***************************************
*STEP,INC=100,NAME=Default Set
**
*STATIC
1, 1, 1e-05, 1
**
**
**
**
*END STEP
