*HEADING
cubit(it_repos/fem_3d_solver/rectangular_waveguide_20220606.inp): 06/06/2022: 16
version: 2022.4
**
********************************** P A R T S **********************************
*PART, NAME=Part-Default
**
********************************** N O D E S **********************************
*NODE, NSET=ALLNODES
       1,    1.000000e+00,   -5.000000e-01,    2.000000e+00
       2,    1.000000e+00,    5.000000e-01,    2.000000e+00
       3,   -1.000000e+00,    5.000000e-01,    2.000000e+00
       4,   -1.000000e+00,   -5.000000e-01,    2.000000e+00
       5,    1.000000e+00,    5.000000e-01,   -2.000000e+00
       6,    1.000000e+00,   -5.000000e-01,   -2.000000e+00
       7,   -1.000000e+00,   -5.000000e-01,   -2.000000e+00
       8,   -1.000000e+00,    5.000000e-01,   -2.000000e+00
       9,    1.000000e+00,   -3.000000e-01,    2.000000e+00
      10,    1.000000e+00,   -1.000000e-01,    2.000000e+00
      11,    1.000000e+00,    1.000000e-01,    2.000000e+00
      12,    1.000000e+00,    3.000000e-01,    2.000000e+00
      13,    8.000000e-01,    5.000000e-01,    2.000000e+00
      14,    6.000000e-01,    5.000000e-01,    2.000000e+00
      15,    4.000000e-01,    5.000000e-01,    2.000000e+00
      16,    2.000000e-01,    5.000000e-01,    2.000000e+00
      17,    2.220446e-16,    5.000000e-01,    2.000000e+00
      18,   -2.000000e-01,    5.000000e-01,    2.000000e+00
      19,   -4.000000e-01,    5.000000e-01,    2.000000e+00
      20,   -6.000000e-01,    5.000000e-01,    2.000000e+00
** ... 2308 like lines cut
**
********************************** E L E M E N T S ****************************
*ELEMENT, TYPE=C3D4, ELSET=Tetrahedrons
       1,     850,     851,     852,     853
       2,     852,     854,     853,     855
       3,     850,     851,     853,     856
       4,     851,     853,     857,     858
       5,     856,     857,     859,     860
       6,     564,     861,     862,     863
       7,     852,     865,     864,     866
       8,     852,     854,     855,     864
       9,     852,     868,     867,     869
      10,     852,     866,     858,     870
      11,     851,     868,     852,     870
      12,     871,     872,     873,     874
      13,     872,     873,     874,     875
      14,     872,     874,     876,     877
      15,     872,     875,     874,     878
      16,     704,     879,     880,     881
      17,     876,     883,     882,     884
      18,     871,     872,     874,     876
      19,     885,     886,     887,     888
      20,     886,     887,     888,     889
** ... 11299 like lines cut
*ELEMENT, TYPE=STRI3, ELSET=PECWalls
   11320,      26,      81,     422
   11321,     101,      34,     423
   11322,     102,     423,     424
   11323,     104,     425,     105
   11324,     426,      86,      87
   11325,     106,     427,     107
   11326,     107,     427,     428
   11327,     108,     428,     429
   11328,       6,     120,      39
   11329,      39,     430,      40
   11330,      40,     430,     431
   11331,      41,     431,     432
   11332,      42,     432,     433
   11333,      43,     433,     434
   11334,      44,     434,     435
   11335,      45,     435,     436
   11336,      46,     436,     437
   11337,     100,       7,      47
   11338,      84,      85,     438
   11339,      91,      92,     439
** ... 1448 like lines cut
*ELEMENT, TYPE=STRI3, ELSET=InputPort
   12818,     162,       9,     141
   12819,     142,     141,      10
   12820,     143,     142,      11
   12821,       2,      13,      12
   12822,      34,       1,       9
   12823,     144,      12,      13
   12824,     145,     144,      14
   12825,      20,     146,      19
   12826,     147,     146,      20
   12827,       3,      22,      21
   12828,     148,      18,      19
   12829,     149,      21,      22
   12830,     150,      17,      18
   12831,     151,     149,      23
   12832,      26,      27,     152
   12833,       4,      26,      25
   12834,     153,      24,      25
   12835,     154,      16,      17
   12836,     155,     152,      27
   12837,     156,      15,      16
** ... 94 like lines cut
*ELEMENT, TYPE=B21, ELSET=InPortBoundary
   12788,       1,       9
   12789,       9,      10
   12790,      10,      11
   12791,      11,      12
   12792,      12,       2
   12793,       2,      13
   12794,      13,      14
   12795,      14,      15
   12796,      15,      16
   12797,      16,      17
   12798,      17,      18
   12799,      18,      19
   12800,      19,      20
   12801,      20,      21
   12802,      21,       3
   12803,       3,      22
   12804,      22,      23
   12805,      23,      24
   12806,      24,      25
   12807,      25,       4
** ... 10 like lines cut
*ELEMENT, TYPE=STRI3, ELSET=OutputPort
   12932,      40,      41,     184
   12933,      39,      40,     185
   12934,     218,     186,     185
   12935,      38,       6,      39
   12936,       5,      35,      60
   12937,      36,      37,     187
   12938,      35,      36,     188
   12939,      56,      57,     189
   12940,      53,      54,     190
   12941,     191,      45,      46
   12942,      47,       7,      48
   12943,      46,      47,     192
   12944,      47,      48,     193
   12945,     191,     192,     213
   12946,      43,      44,     194
   12947,      52,      51,       8
   12948,      50,      51,     195
   12949,      42,      43,     196
   12950,      49,      50,     197
   12951,     198,     195,      52
** ... 92 like lines cut
**
********************************** P R O P E R T I E S ************************
*SOLID SECTION, ELSET=Tetrahedrons, MATERIAL=Default-Steel
*SHELL SECTION, ELSET=PECWalls, SECTION INTEGRATION=SIMPSON, MATERIAL=Default-Steel
1.000000e+00
*SHELL SECTION, ELSET=InputPort, SECTION INTEGRATION=SIMPSON, MATERIAL=Default-Steel
1.000000e+00
*SHELL SECTION, ELSET=OutputPort, SECTION INTEGRATION=SIMPSON, MATERIAL=Default-Steel
1.000000e+00
**
*END PART
**
**
**
********************************** E N D   P A R T S **********************************
**
**
********************************** A S S E M B L Y ************************************
**
*ASSEMBLY, NAME=ASSEMBLY1
**
*INSTANCE, NAME=Part-Default_1, PART=Part-Default
*END INSTANCE
**
*END ASSEMBLY
**
**
**
*MATERIAL, NAME = Default-Steel
*ELASTIC, TYPE=ISOTROPIC
2.068000e+05, 2.900000e-01
*DENSITY
7.000000e-06
*CONDUCTIVITY,TYPE=ISO
4.500000e-02
*SPECIFIC HEAT
5.000000e+02
**
**
************************************** H I S T O R Y *************************************
**
*PREPRINT
**
**************************************** S T E P 1 ***************************************
*STEP,INC=100,NAME=Default Set
**
*STATIC
1, 1, 1e-05, 1
**
**
**
**
*END STEP
