*HEADING
cubit(m-3d-solver/rectangular_waveguide_short_fine_20220629.inp): 06/29/2022: 02
version: 2021.11
**
********************************** P A R T S **********************************
*PART, NAME=Part-Default
**
********************************** N O D E S **********************************
*NODE, NSET=ALLNODES
       1,   -5.000000e-01,    2.500000e-01,    2.500000e-01
       2,   -5.000000e-01,    2.500000e-01,   -2.500000e-01
       3,   -5.000000e-01,   -2.500000e-01,   -2.500000e-01
       4,   -5.000000e-01,   -2.500000e-01,    2.500000e-01
       5,    5.000000e-01,   -2.500000e-01,    2.500000e-01
       6,    5.000000e-01,   -2.500000e-01,   -2.500000e-01
       7,    5.000000e-01,    2.500000e-01,   -2.500000e-01
       8,    5.000000e-01,    2.500000e-01,    2.500000e-01
       9,   -5.000000e-01,    2.500000e-01,    2.115385e-01
      10,   -5.000000e-01,    2.500000e-01,    1.730769e-01
      11,   -5.000000e-01,    2.500000e-01,    1.346154e-01
      12,   -5.000000e-01,    2.500000e-01,    9.615385e-02
      13,   -5.000000e-01,    2.500000e-01,    5.769231e-02
      14,   -5.000000e-01,    2.500000e-01,    1.923077e-02
      15,   -5.000000e-01,    2.500000e-01,   -1.923077e-02
      16,   -5.000000e-01,    2.500000e-01,   -5.769231e-02
      17,   -5.000000e-01,    2.500000e-01,   -9.615385e-02
      18,   -5.000000e-01,    2.500000e-01,   -1.346154e-01
      19,   -5.000000e-01,    2.500000e-01,   -1.730769e-01
      20,   -5.000000e-01,    2.500000e-01,   -2.115385e-01
** ... 7696 like lines cut
**
********************************** E L E M E N T S ****************************
*ELEMENT, TYPE=C3D4, ELSET=Tetrahedrons
       1,    1767,    1768,    1769,    1770
       2,    1767,    1768,    1770,    1771
       3,    1770,    1773,    1772,    1774
       4,    1775,    1776,    1777,    1778
       5,    1769,    1770,    1779,    1780
       6,    1768,    1779,    1770,    1781
       7,    1768,    1770,    1774,    1781
       8,    1782,    1783,    1784,    1785
       9,    1785,    1787,    1786,    1788
      10,    1782,    1785,    1787,    1789
      11,    1790,    1791,    1792,    1793
      12,    1780,    1792,    1793,    1794
      13,    1780,    1794,    1793,    1795
      14,    1775,    1790,    1792,    1793
      15,    1707,    1796,    1797,    1798
      16,    1793,    1800,    1799,    1801
      17,    1793,    1802,    1801,    1803
      18,    1772,    1780,    1792,    1793
      19,    1772,    1773,    1780,    1793
      20,    1775,    1793,    1799,    1801
** ... 40912 like lines cut
*ELEMENT, TYPE=STRI3, ELSET=PECWalls
   40933,     165,    1141,     166
   40934,     166,    1141,    1142
   40935,     167,    1142,    1143
   40936,     168,    1143,    1144
   40937,     169,    1144,    1145
   40938,     170,    1145,    1146
   40939,     171,    1146,    1147
   40940,     172,    1147,    1148
   40941,     173,    1148,    1149
   40942,     174,    1149,    1150
   40943,     175,    1150,    1151
   40944,     176,      44,       3
   40945,       4,      33,     129
   40946,     153,    1152,     154
   40947,     154,    1152,    1153
   40948,     155,    1153,    1154
   40949,     156,    1154,    1155
   40950,     157,    1155,    1156
   40951,     160,    1157,     161
   40952,     163,    1158,     164
** ... 2108 like lines cut
*ELEMENT, TYPE=STRI3, ELSET=InputPort
   43061,     515,     152,      93
   43062,      96,     516,      95
   43063,     517,     516,      96
   43064,      99,     518,      98
   43065,     519,     518,      99
   43066,     520,     519,     100
   43067,     521,     520,     101
   43068,     522,     521,     102
   43069,     523,     522,     103
   43070,       8,     105,     104
   43071,     524,      97,      98
   43072,     525,      94,      95
   43073,     526,     523,     105
   43074,     152,       5,      93
   43075,     528,     527,     107
   43076,     529,     528,     108
   43077,     530,     529,     109
   43078,     113,     531,     112
   43079,     116,     532,     115
   43080,     533,     532,     116
** ... 1380 like lines cut
*ELEMENT, TYPE=B21, ELSET=InPortBoundary
   44461,       5,      93
   44462,      93,      94
   44463,      94,      95
   44464,      95,      96
   44465,      96,      97
   44466,      97,      98
   44467,      98,      99
   44468,      99,     100
   44469,     100,     101
   44470,     101,     102
   44471,     102,     103
   44472,     103,     104
   44473,     104,       8
   44474,       8,     105
   44475,     105,     106
   44476,     106,     107
   44477,     107,     108
   44478,     108,     109
   44479,     109,     110
   44480,     110,     111
** ... 56 like lines cut
*ELEMENT, TYPE=B21, ELSET=OutPortBoundary
   44537,       7,      69
   44538,      69,      70
   44539,      70,      71
   44540,      71,      72
   44541,      72,      73
   44542,      73,      74
   44543,      74,      75
   44544,      75,      76
   44545,      76,      77
   44546,      77,      78
   44547,      78,      79
   44548,      79,      80
   44549,      80,       6
   44550,       6,     153
   44551,     153,     154
   44552,     154,     155
   44553,     155,     156
   44554,     156,     157
   44555,     157,     158
   44556,     158,     159
** ... 56 like lines cut
**
********************************** P R O P E R T I E S ************************
*SOLID SECTION, ELSET=Tetrahedrons, MATERIAL=Default-Steel
*SHELL SECTION, ELSET=PECWalls, SECTION INTEGRATION=SIMPSON, MATERIAL=Default-Steel
1.000000e+00
*SHELL SECTION, ELSET=InputPort, SECTION INTEGRATION=SIMPSON, MATERIAL=Default-Steel
1.000000e+00
**
*END PART
**
**
**
********************************** E N D   P A R T S **********************************
**
**
********************************** A S S E M B L Y ************************************
**
*ASSEMBLY, NAME=ASSEMBLY1
**
*INSTANCE, NAME=Part-Default_1, PART=Part-Default
*END INSTANCE
**
*END ASSEMBLY
**
**
**
*MATERIAL, NAME = Default-Steel
*ELASTIC, TYPE=ISOTROPIC
2.068000e+05, 2.900000e-01
*DENSITY
7.000000e-06
*CONDUCTIVITY,TYPE=ISO
4.500000e-02
*SPECIFIC HEAT
5.000000e+02
**
**
************************************** H I S T O R Y *************************************
**
*PREPRINT
**
**************************************** S T E P 1 ***************************************
*STEP,INC=100,NAME=Default Set
**
*STATIC
1, 1, 1e-05, 1
**
**
**
**
*END STEP
